24

Au         0.09005        8.43353        8.85501
Au        -0.44095        4.82905        8.80123
Au        -1.67516        3.19186        5.67629
Au        -4.00062        4.69594        3.83597
Au        -4.25842        7.86118        4.12278
Au        -1.51760        9.61018        5.77786
S          0.65943        6.47423        9.96935
S         -1.35159        2.88838        7.94083
S         -2.22471        3.30100        3.42071
S         -5.74216        6.12549        4.30800
S         -2.74345        9.54895        3.83299
S         -0.44269       10.34492        7.69286
Au         1.21682        8.01825        5.76591
Au         2.94817        9.73264        7.99161
Au         1.55621       10.28369       11.01797
Au        -1.30384        8.87012       11.79174
Au        -2.66856        6.99866        9.57201
Au        -1.73927        6.46092        6.33653
S          0.31100        5.91785        5.39546
S          2.46381        9.95359        5.73604
S          3.58611        9.59421       10.18146
S         -0.44256       11.01045       11.92020
S         -2.17047        6.72713       11.80966
S         -3.59381        7.23825        7.46880
