8

S         -2.56803        1.96437        0.44624
S          1.25837        3.91355       -0.91496
S         -0.33949       -2.16869        0.84028
S          3.59648        0.03241       -0.01417
Au        -0.91082        0.16454        0.44791
Au         1.22342       -0.42368        0.24505
Au         1.80512        1.61909       -0.31768
Au        -0.27921        2.21395       -0.17672
