8
abc
S 0 -1.25988210689999991 2.97565045920000015
S 0 2.94912291709999996 1.39665386020000004
S 0 -2.94238104890000018 -1.41717409790000004
S 0 1.37941827080000001 -2.93871383279999998
Au 0 -1.51043786730000007 0.548878746299999998
Au 0 -0.526461314800000024 -1.44444543830000005
Au 0 1.47348192999999994 -0.534812537900000051
Au 0 0.542919598999999975 1.42771449530000005
