8
abc
S 0.187517025599999998 0 2.97565045920000015
S -0.103260416899999999 0 1.39665386020000004
S -0.0884045893999999971 0 -1.41717409790000004
S 0.183171050599999996 0 -2.93871383279999998
Au 0.00384158809999999998 0 0.548878746299999998
Au -0.0203279180000000004 0 -1.44444543830000005
Au 0.00695248039999999973 0 -0.534812537900000051
Au -0.0195254628999999985 0 1.42771449530000005
